<?xml version="1.0" encoding="UTF-8"?>
<additional>
    <tlLogic id="ramp_tl" type="actuated" programID="0" offset="0">
        <phase duration="1" state="GGGG"/>
        <phase duration="1"  state="GGGy"/>
        <phase duration="1" state="GGGr"/>
    </tlLogic>
</additional>