<?xml version="1.0" encoding="UTF-8"?>
    <connections>
        <connection from="highway1" to="highway2"/>
        <connection from="ramp" to="highway2" via="ramp_end"/>
        <!-- <tlLogic id="ramp_end" type="static" programID="1" offset="0">
            <phase duration="31" state="GGGG"/>
            <phase duration="6" state="yGGG"/>
            <phase duration="31" state="rGGG"/>
        </tlLogic> -->
    </connections>
    