<?xml version="1.0" encoding="UTF-8"?>
    <nodes>
        <node id="start" x="0" y="0"/>
        <node id="ramp_start" x="400" y="-100"/>
        <node id="ramp_end" x="500" y="0" type="traffic_light"/>
        <node id="end" x="1000" y="0"/>
    </nodes>